711
  Marvin  12300703363D          

 54 56  0  0  1  0            999 V2000
   -1.6724   -3.7791    5.5002 P   0  0  1  0  0  0  0  0  0  0  0  0
    0.5377    0.9211    1.3900 O   0  0  0  0  0  0  0  0  0  0  0  0
    0.4262   -2.6879    0.7565 O   0  0  0  0  0  0  0  0  0  0  0  0
   -1.9306   -1.5013    1.9525 O   0  0  0  0  0  0  0  0  0  0  0  0
   -1.4797   -2.7405    4.4968 O   0  0  0  0  0  0  0  0  0  0  0  0
    1.5520    5.3834   -0.2593 O   0  0  0  0  0  0  0  0  0  0  0  0
    4.7664    2.8782    1.3214 O   0  0  0  0  0  0  0  0  0  0  0  0
   -2.8584   -3.5048    6.2683 O   0  0  0  0  0  0  0  0  0  0  0  0
   -1.8099   -5.0603    4.8496 O   0  0  0  0  0  0  0  0  0  0  0  0
   -0.5445   -3.8277    6.3954 O   0  0  0  0  0  0  0  0  0  0  0  0
    1.6018    0.8939   -1.2286 N   0  0  0  0  0  0  0  0  0  0  0  0
    0.4686    3.2573   -1.6312 N   0  0  0  0  0  0  0  0  0  0  0  0
    3.3396    1.9708   -0.0762 N   0  0  0  0  0  0  0  0  0  0  0  0
    3.1262    4.1282    0.5479 N   0  0  0  0  0  0  0  0  0  0  0  0
    0.5056   -0.2732    0.6038 C   0  0  1  0  0  0  0  0  0  0  0  0
    1.6746   -0.2833   -0.4309 C   0  0  0  0  0  0  0  0  0  0  0  0
    0.4870   -1.4990    1.5465 C   0  0  1  0  0  0  0  0  0  0  0  0
    0.6438    0.9732   -2.2086 C   0  0  0  0  0  0  0  0  0  0  0  0
    2.2040    1.9992   -0.7630 C   0  0  0  0  0  0  0  0  0  0  0  0
   -0.6582   -1.4945    2.6015 C   0  0  2  0  0  0  0  0  0  0  0  0
   -0.0055    2.2282   -2.3441 C   0  0  0  0  0  0  0  0  0  0  0  0
    1.5572    3.1943   -0.9024 C   0  0  0  0  0  0  0  0  0  0  0  0
    0.1838   -0.0832   -3.0301 C   0  0  0  0  0  0  0  0  0  0  0  0
   -0.5181   -2.6946    3.5668 C   0  0  0  0  0  0  0  0  0  0  0  0
   -1.1214    2.3715   -3.1870 C   0  0  0  0  0  0  0  0  0  0  0  0
   -0.9356    0.0354   -3.8908 C   0  0  0  0  0  0  0  0  0  0  0  0
   -1.6144    1.2872   -3.9544 C   0  0  0  0  0  0  0  0  0  0  0  0
    2.0679    4.2753   -0.2190 C   0  0  0  0  0  0  0  0  0  0  0  0
    3.7774    2.9932    0.6151 C   0  0  0  0  0  0  0  0  0  0  0  0
   -1.2971   -1.2036   -4.6360 C   0  0  0  0  0  0  0  0  0  0  0  0
   -2.8288    1.5820   -4.7619 C   0  0  0  0  0  0  0  0  0  0  0  0
   -0.4435   -0.2533    0.0610 H   0  0  0  0  0  0  0  0  0  0  0  0
    1.6559   -1.2008   -1.0196 H   0  0  0  0  0  0  0  0  0  0  0  0
    2.6117   -0.4037    0.1197 H   0  0  0  0  0  0  0  0  0  0  0  0
    1.4441   -1.5144    2.0762 H   0  0  0  0  0  0  0  0  0  0  0  0
   -0.6078   -0.5756    3.1934 H   0  0  0  0  0  0  0  0  0  0  0  0
    0.0084    4.0707   -1.6715 H   0  0  0  0  0  0  0  0  0  0  0  0
    0.6744   -0.9791   -2.9941 H   0  0  0  0  0  0  0  0  0  0  0  0
    0.4606   -2.6228    4.0540 H   0  0  0  0  0  0  0  0  0  0  0  0
   -0.5341   -3.6098    2.9659 H   0  0  0  0  0  0  0  0  0  0  0  0
   -1.5790    3.2876   -3.2265 H   0  0  0  0  0  0  0  0  0  0  0  0
    3.8431    1.1824   -0.0639 H   0  0  0  0  0  0  0  0  0  0  0  0
    1.4018    0.9107    1.8531 H   0  0  0  0  0  0  0  0  0  0  0  0
   -0.4199   -2.6287    0.2647 H   0  0  0  0  0  0  0  0  0  0  0  0
   -2.5938   -1.3664    2.6618 H   0  0  0  0  0  0  0  0  0  0  0  0
    3.4213    4.8481    1.0678 H   0  0  0  0  0  0  0  0  0  0  0  0
   -1.5634   -1.9933   -3.9296 H   0  0  0  0  0  0  0  0  0  0  0  0
   -0.4459   -1.5473   -5.2276 H   0  0  0  0  0  0  0  0  0  0  0  0
   -2.1279   -1.1194   -5.3294 H   0  0  0  0  0  0  0  0  0  0  0  0
   -3.6478    1.8728   -4.1006 H   0  0  0  0  0  0  0  0  0  0  0  0
   -2.6291    2.4063   -5.4493 H   0  0  0  0  0  0  0  0  0  0  0  0
   -3.2067    0.7645   -5.3683 H   0  0  0  0  0  0  0  0  0  0  0  0
   -3.6413   -3.4602    5.8697 H   0  0  0  0  0  0  0  0  0  0  0  0
   -1.7264   -5.8078    5.3044 H   0  0  0  0  0  0  0  0  0  0  0  0
  1  5  1  0  0  0  0
  1  8  1  0  0  0  0
  1  9  1  0  0  0  0
  1 10  2  0  0  0  0
  2 15  1  0  0  0  0
  2 43  1  0  0  0  0
  3 17  1  0  0  0  0
  3 44  1  0  0  0  0
  4 20  1  0  0  0  0
  4 45  1  0  0  0  0
  5 24  1  0  0  0  0
  6 28  2  0  0  0  0
  7 29  2  0  0  0  0
  8 53  1  0  0  0  0
  9 54  1  0  0  0  0
 11 16  1  0  0  0  0
 11 18  1  0  0  0  0
 11 19  1  0  0  0  0
 12 21  1  0  0  0  0
 12 22  1  0  0  0  0
 12 37  1  0  0  0  0
 13 19  1  0  0  0  0
 13 29  1  0  0  0  0
 13 42  1  0  0  0  0
 14 28  1  0  0  0  0
 14 29  1  0  0  0  0
 14 46  1  0  0  0  0
 15 16  1  0  0  0  0
 15 17  1  0  0  0  0
 15 32  1  0  0  0  0
 16 33  1  0  0  0  0
 16 34  1  0  0  0  0
 17 20  1  0  0  0  0
 17 35  1  0  0  0  0
 18 21  2  0  0  0  0
 18 23  1  0  0  0  0
 19 22  2  0  0  0  0
 20 24  1  0  0  0  0
 20 36  1  0  0  0  0
 21 25  1  0  0  0  0
 22 28  1  0  0  0  0
 23 26  2  0  0  0  0
 23 38  1  0  0  0  0
 24 39  1  0  0  0  0
 24 40  1  0  0  0  0
 25 27  2  0  0  0  0
 25 41  1  0  0  0  0
 26 27  1  0  0  0  0
 26 30  1  0  0  0  0
 27 31  1  0  0  0  0
 30 47  1  0  0  0  0
 30 48  1  0  0  0  0
 30 49  1  0  0  0  0
 31 50  1  0  0  0  0
 31 51  1  0  0  0  0
 31 52  1  0  0  0  0
M  END

> <PUBCHEM_BONDANNOTATIONS>
13  19  8
13  29  8
14  28  8
14  29  8
18  21  8
18  23  8
19  22  8
15  2  3
21  25  8
22  28  8
23  26  8
25  27  8
26  27  8
17  3  3
20  4  3

> <StdInChI>
InChI=1S/C17H23N4O9P/c1-7-3-9-10(4-8(7)2)21(15-13(18-9)16(25)20-17(26)19-15)5-11(22)14(24)12(23)6-30-31(27,28)29/h3-4,11-12,14,18,22-24H,5-6H2,1-2H3,(H2,27,28,29)(H2,19,20,25,26)/t11-,12-,14-/m0/s1

> <StdInChIKey>
YTNIXZGTHTVJBW-OBJOEFQTSA-N

> <AuxInfo>
1/1/N:31,30,25,23,16,24,27,26,21,18,15,20,22,17,19,28,29,12,13,14,11,2,4,3,6,7,8,9,10,5,1/E:(27,28,29)/it:im/rA:54cPOOOOOOOOONNNNCCCCCCCCCCCCCCCCCHHHHHHHHHHHHHHHHHHHHHHH/rB:;;;s1;;;s1;s1;d1;;;;;s2;s11s15;s3s15;s11;s11s13;s4s17;s12d18;s12d19;s18;s5s20;s21;d23;d25s26;d6s14s22;d7s13s14;s26;s27;s15;s16;s16;s17;s20;s12;s23;s24;s24;s25;s13;s2;s3;s4;s14;s30;s30;s30;s31;s31;s31;s8;s9;/rC:-1.6724,-3.7791,5.5002;.5377,.9211,1.39;.4262,-2.6879,.7565;-1.9306,-1.5013,1.9525;-1.4797,-2.7405,4.4968;1.552,5.3834,-.2593;4.7664,2.8782,1.3214;-2.8584,-3.5048,6.2683;-1.8099,-5.0603,4.8496;-.5445,-3.8277,6.3954;1.6018,.8939,-1.2286;.4686,3.2573,-1.6312;3.3396,1.9708,-.0762;3.1262,4.1282,.5479;.5056,-.2732,.6038;1.6746,-.2833,-.4309;.487,-1.499,1.5465;.6438,.9732,-2.2086;2.204,1.9992,-.763;-.6582,-1.4945,2.6015;-.0055,2.2282,-2.3441;1.5572,3.1943,-.9024;.1838,-.0832,-3.0301;-.5181,-2.6946,3.5668;-1.1214,2.3715,-3.187;-.9356,.0354,-3.8908;-1.6144,1.2872,-3.9544;2.0679,4.2753,-.219;3.7774,2.9932,.6151;-1.2971,-1.2036,-4.636;-2.8288,1.582,-4.7619;-.4435,-.2533,.061;1.6559,-1.2008,-1.0196;2.6117,-.4037,.1197;1.4441,-1.5144,2.0762;-.6078,-.5756,3.1934;.0084,4.0707,-1.6715;.6744,-.9791,-2.9941;.4606,-2.6228,4.054;-.5341,-3.6098,2.9659;-1.579,3.2876,-3.2265;3.8431,1.1824,-.0639;1.4018,.9107,1.8531;-.4199,-2.6287,.2647;-2.5938,-1.3664,2.6618;3.4213,4.8481,1.0678;-1.5634,-1.9933,-3.9296;-.4459,-1.5473,-5.2276;-2.1279,-1.1194,-5.3294;-3.6478,1.8728,-4.1006;-2.6291,2.4063,-5.4493;-3.2067,.7645,-5.3683;-3.6413,-3.4602,5.8697;-1.7264,-5.8078,5.3044;

> <Formula>
C17 H23 N4 O9 P

> <Mw>
458.3597

> <SMILES>
P(=O)(O[H])(O[H])OC([H])([H])[C@@]([H])([C@]([H])([C@]([H])(C([H])([H])N1C2=C(C(N([H])C(N2[H])=O)=O)N([H])C2C([H])=C(C([H])([H])[H])C(C([H])([H])[H])=C([H])C1=2)O[H])O[H])O[H]

> <CSID>
691

$$$$
