
  1019              3D

 76 80  0  0  1  0  0  0  0  0999 V2000
   -5.5350   10.5118   -7.9588 N   0  0  0  0  0  0  0  0  0  0  0  0
   -6.4844   11.3704   -7.4557 C   0  0  0  0  0  0  0  0  0  0  0  0
   -7.5574   11.6356   -7.9780 O   0  0  0  0  0  0  0  0  0  0  0  0
   -6.0633   12.0659   -6.2377 C   0  0  0  0  0  0  0  0  0  0  0  0
   -5.4626   13.3100   -6.3602 C   0  0  0  0  0  0  0  0  0  0  0  0
   -4.9746   13.9290   -5.2200 C   0  0  0  0  0  0  0  0  0  0  0  0
   -5.0897   13.2850   -3.9942 C   0  0  0  0  0  0  0  0  0  0  0  0
   -5.6875   12.0729   -3.8849 N   0  3  0  0  0  0  0  0  0  0  0  0
   -6.1963   11.4652   -4.9867 C   0  0  0  0  0  0  0  0  0  0  0  0
   -5.6534   11.4009   -2.5508 C   0  0  0  0  0  0  0  0  0  0  0  0
   -5.9515   10.0023   -2.6424 O   0  0  0  0  0  0  0  0  0  0  0  0
   -7.1371    9.7057   -1.8933 C   0  0  0  0  0  0  0  0  0  0  0  0
   -6.7845    8.7851   -0.7270 C   0  0  0  0  0  0  0  0  0  0  0  0
   -5.5720    9.1504   -0.0839 O   0  0  0  0  0  0  0  0  0  0  0  0
   -4.2596    8.1717   -0.1402 P   0  0  0  0  0  0  0  0  0  0  0  0
   -3.3933    8.4855    1.0618 O   0  5  0  0  0  0  0  0  0  0  0  0
   -3.6768    8.2209   -1.5346 O   0  0  0  0  0  0  0  0  0  0  0  0
   -4.9565    6.7214    0.1211 O   0  0  0  0  0  0  0  0  0  0  0  0
   -5.1972    5.3907   -0.7628 P   0  0  0  0  0  0  0  0  0  0  0  0
   -3.8854    4.5050   -0.4323 O   0  0  0  0  0  0  0  0  0  0  0  0
   -6.4982    4.6974   -0.4813 O   0  0  0  0  0  0  0  0  0  0  0  0
   -4.9451    5.8591   -2.2909 O   0  0  0  0  0  0  0  0  0  0  0  0
   -5.8592    5.4990   -3.3215 C   0  0  0  0  0  0  0  0  0  0  0  0
   -5.5042    4.1251   -3.9016 C   0  0  0  0  0  0  0  0  0  0  0  0
   -5.2784    4.2344   -5.3236 O   0  0  0  0  0  0  0  0  0  0  0  0
   -6.0202    3.2005   -6.0147 C   0  0  0  0  0  0  0  0  0  0  0  0
   -6.4312    2.2108   -4.9281 C   0  0  0  0  0  0  0  0  0  0  0  0
   -7.5832    1.4243   -5.1747 O   0  0  0  0  0  0  0  0  0  0  0  0
   -8.8841    1.9032   -5.9996 P   0  0  0  0  0  0  0  0  0  0  0  0
   -9.5247    3.0986   -5.1202 O   0  0  0  0  0  0  0  0  0  0  0  0
   -9.9181    0.6851   -5.7380 O   0  0  0  0  0  0  0  0  0  0  0  0
   -8.6768    2.2208   -7.4514 O   0  0  0  0  0  0  0  0  0  0  0  0
   -6.6193    3.1078   -3.7268 C   0  0  0  0  0  0  0  0  0  0  0  0
   -6.4726    2.3713   -2.5277 O   0  0  0  0  0  0  0  0  0  0  0  0
   -5.2001    2.6675   -7.0973 N   0  0  0  0  0  0  0  0  0  0  0  0
   -4.3906    3.4157   -7.9185 C   0  0  0  0  0  0  0  0  0  0  0  0
   -3.8027    2.6869   -8.8439 N   0  0  0  0  0  0  0  0  0  0  0  0
   -4.2998    1.4198   -8.6692 C   0  0  0  0  0  0  0  0  0  0  0  0
   -5.1931    1.3910   -7.6063 C   0  0  0  0  0  0  0  0  0  0  0  0
   -5.8973    0.3264   -7.1910 N   0  0  0  0  0  0  0  0  0  0  0  0
   -5.6330   -0.7584   -7.9388 C   0  0  0  0  0  0  0  0  0  0  0  0
   -4.7782   -0.8751   -8.9786 N   0  0  0  0  0  0  0  0  0  0  0  0
   -4.0766    0.2250   -9.3735 C   0  0  0  0  0  0  0  0  0  0  0  0
   -3.1972    0.1540  -10.4661 N   0  0  0  0  0  0  0  0  0  0  0  0
   -7.7733   11.0320   -1.4993 C   0  0  0  0  0  0  0  0  0  0  0  0
   -8.7401   11.3717   -2.4937 O   0  0  0  0  0  0  0  0  0  0  0  0
   -6.6443   12.0332   -1.5821 C   0  0  0  0  0  0  0  0  0  0  0  0
   -6.0359   12.1792   -0.3019 O   0  0  0  0  0  0  0  0  0  0  0  0
   -4.7464   10.2231   -7.3884 H   0  0  0  0  0  0  0  0  0  0  0  0
   -5.8165    9.8264   -8.6518 H   0  0  0  0  0  0  0  0  0  0  0  0
   -5.3507   13.7877   -7.3291 H   0  0  0  0  0  0  0  0  0  0  0  0
   -4.4802   14.8934   -5.2885 H   0  0  0  0  0  0  0  0  0  0  0  0
   -4.6903   13.7147   -3.0823 H   0  0  0  0  0  0  0  0  0  0  0  0
   -6.6655   10.4984   -4.8545 H   0  0  0  0  0  0  0  0  0  0  0  0
   -4.6154   11.4863   -2.2059 H   0  0  0  0  0  0  0  0  0  0  0  0
   -7.8021    9.1478   -2.5621 H   0  0  0  0  0  0  0  0  0  0  0  0
   -7.5753    8.7929    0.0292 H   0  0  0  0  0  0  0  0  0  0  0  0
   -6.7203    7.7645   -1.1089 H   0  0  0  0  0  0  0  0  0  0  0  0
   -3.3072    4.7808    0.3103 H   0  0  0  0  0  0  0  0  0  0  0  0
   -6.8800    5.5392   -2.9265 H   0  0  0  0  0  0  0  0  0  0  0  0
   -5.7982    6.2743   -4.0935 H   0  0  0  0  0  0  0  0  0  0  0  0
   -4.5726    3.7563   -3.4553 H   0  0  0  0  0  0  0  0  0  0  0  0
   -6.8721    3.6892   -6.4946 H   0  0  0  0  0  0  0  0  0  0  0  0
   -5.6147    1.5066   -4.7148 H   0  0  0  0  0  0  0  0  0  0  0  0
   -9.3051    4.0288   -5.3419 H   0  0  0  0  0  0  0  0  0  0  0  0
  -10.2292    0.1521   -6.5003 H   0  0  0  0  0  0  0  0  0  0  0  0
   -7.6064    3.5745   -3.7232 H   0  0  0  0  0  0  0  0  0  0  0  0
   -6.6229    2.9880   -1.7922 H   0  0  0  0  0  0  0  0  0  0  0  0
   -4.2767    4.4852   -7.8029 H   0  0  0  0  0  0  0  0  0  0  0  0
   -6.1809   -1.6578   -7.6793 H   0  0  0  0  0  0  0  0  0  0  0  0
   -2.2419    0.3592  -10.1827 H   0  0  0  0  0  0  0  0  0  0  0  0
   -3.2277   -0.7758  -10.8796 H   0  0  0  0  0  0  0  0  0  0  0  0
   -8.2759   10.9947   -0.5266 H   0  0  0  0  0  0  0  0  0  0  0  0
   -9.3704   11.9890   -2.0841 H   0  0  0  0  0  0  0  0  0  0  0  0
   -6.9788   13.0277   -1.8946 H   0  0  0  0  0  0  0  0  0  0  0  0
   -5.6511   11.3242   -0.0455 H   0  0  0  0  0  0  0  0  0  0  0  0
  1  2  1  0  0  0  0
  1 49  1  0  0  0  0
  1 50  1  0  0  0  0
  2  3  2  0  0  0  0
  2  4  1  0  0  0  0
  4  5  2  0  0  0  0
  4  9  1  0  0  0  0
  5  6  1  0  0  0  0
  5 51  1  0  0  0  0
  6  7  2  0  0  0  0
  6 52  1  0  0  0  0
  7  8  1  0  0  0  0
  7 53  1  0  0  0  0
  8  9  2  0  0  0  0
 10  8  1  0  0  0  0
  9 54  1  0  0  0  0
 10 11  1  0  0  0  0
 10 47  1  0  0  0  0
 10 55  1  0  0  0  0
 11 12  1  0  0  0  0
 12 13  1  0  0  0  0
 12 45  1  0  0  0  0
 12 56  1  0  0  0  0
 13 14  1  0  0  0  0
 13 57  1  0  0  0  0
 13 58  1  0  0  0  0
 15 14  1  0  0  0  0
 15 16  1  0  0  0  0
 15 17  2  0  0  0  0
 15 18  1  0  0  0  0
 19 18  1  0  0  0  0
 19 20  1  0  0  0  0
 19 21  2  0  0  0  0
 19 22  1  0  0  0  0
 20 59  1  0  0  0  0
 22 23  1  0  0  0  0
 24 23  1  0  0  0  0
 23 60  1  0  0  0  0
 23 61  1  0  0  0  0
 24 25  1  0  0  0  0
 24 33  1  0  0  0  0
 24 62  1  0  0  0  0
 25 26  1  0  0  0  0
 26 27  1  0  0  0  0
 26 35  1  0  0  0  0
 26 63  1  0  0  0  0
 27 28  1  0  0  0  0
 27 33  1  0  0  0  0
 27 64  1  0  0  0  0
 28 29  1  0  0  0  0
 29 30  1  0  0  0  0
 29 31  1  0  0  0  0
 29 32  2  0  0  0  0
 30 65  1  0  0  0  0
 31 66  1  0  0  0  0
 33 34  1  0  0  0  0
 33 67  1  0  0  0  0
 34 68  1  0  0  0  0
 35 36  1  0  0  0  0
 35 39  1  0  0  0  0
 36 37  2  0  0  0  0
 36 69  1  0  0  0  0
 37 38  1  0  0  0  0
 38 39  2  0  0  0  0
 38 43  1  0  0  0  0
 39 40  1  0  0  0  0
 40 41  2  0  0  0  0
 41 42  1  0  0  0  0
 41 70  1  0  0  0  0
 42 43  2  0  0  0  0
 43 44  1  0  0  0  0
 44 71  1  0  0  0  0
 44 72  1  0  0  0  0
 45 46  1  0  0  0  0
 45 47  1  0  0  0  0
 45 73  1  0  0  0  0
 46 74  1  0  0  0  0
 47 48  1  0  0  0  0
 47 75  1  0  0  0  0
 48 76  1  0  0  0  0
M  CHG  2   8   1  16  -1
M  END

> <energy>
96.736365967285622

> <StdInChI>
InChI=1S/C21H28N7O17P3/c22-17-12-19(25-7-24-17)28(8-26-12)21-16(44-46(33,34)35)14(30)11(43-21)6-41-48(38,39)45-47(36,37)40-5-10-13(29)15(31)20(42-10)27-3-1-2-9(4-27)18(23)32/h1-4,7-8,10-11,13-16,20-21,29-31H,5-6H2,(H7-,22,23,24,25,32,33,34,35,36,37,38,39)/t10-,11-,13-,14-,15+,16+,20+,21+/m0/s1

> <StdInChIKey>
XJLXINKUBYWONI-XCSFTKGKSA-N

> <AuxInfo>
1/2/N:6,5,7,9,13,23,41,36,4,12,24,38,45,33,47,27,43,2,39,10,26,44,1,42,40,37,8,35,46,34,48,3,30,31,32,16,17,20,21,14,22,11,25,28,18,29,15,19/E:(33,34,35)(36,37)(38,39)/it:im/CRV:27+1,36-1/rA:76cNCOCCCCN+CCOCCOPO-OOPOOOCCOCCOPOOOCONCNCCNCNCNCOCOHHHHHHHHHHHHHHHHHHHHHHHHHHHH/rB:s1;d2;s2;d4;s5;d6;s7;s4d8;s8;s10;s11;s12;s13;s14;s15;d15;s15;s18;s19;d19;s19;s22;s23;s24;s25;s26;s27;s28;s29;s29;d29;s24s27;s33;s26;s35;d36;s37;s35d38;s39;d40;s41;s38d42;s43;s12;s45;s10s45;s47;s1;s1;s5;s6;s7;s9;s10;s12;s13;s13;s20;s23;s23;s24;s26;s27;s30;s31;s33;s34;s36;s41;s44;s44;s45;s46;s47;s48;/rC:-5.535,10.5118,-7.9588;-6.4844,11.3704,-7.4557;-7.5574,11.6356,-7.978;-6.0633,12.0659,-6.2377;-5.4626,13.31,-6.3602;-4.9746,13.929,-5.22;-5.0897,13.285,-3.9942;-5.6875,12.0729,-3.8849;-6.1963,11.4652,-4.9867;-5.6534,11.4009,-2.5508;-5.9515,10.0023,-2.6424;-7.1371,9.7057,-1.8933;-6.7845,8.7851,-.727;-5.572,9.1504,-.0839;-4.2596,8.1717,-.1402;-3.3933,8.4855,1.0618;-3.6768,8.2209,-1.5346;-4.9565,6.7214,.1211;-5.1972,5.3907,-.7628;-3.8854,4.505,-.4323;-6.4982,4.6974,-.4813;-4.9451,5.8591,-2.2909;-5.8592,5.499,-3.3215;-5.5042,4.1251,-3.9016;-5.2784,4.2344,-5.3236;-6.0202,3.2005,-6.0147;-6.4312,2.2108,-4.9281;-7.5832,1.4243,-5.1747;-8.8841,1.9032,-5.9996;-9.5247,3.0986,-5.1202;-9.9181,.6851,-5.738;-8.6768,2.2208,-7.4514;-6.6193,3.1078,-3.7268;-6.4726,2.3713,-2.5277;-5.2001,2.6675,-7.0973;-4.3906,3.4157,-7.9185;-3.8027,2.6869,-8.8439;-4.2998,1.4198,-8.6692;-5.1931,1.391,-7.6063;-5.8973,.3264,-7.191;-5.633,-.7584,-7.9388;-4.7782,-.8751,-8.9786;-4.0766,.225,-9.3735;-3.1972,.154,-10.4661;-7.7733,11.032,-1.4993;-8.7401,11.3717,-2.4937;-6.6443,12.0332,-1.5821;-6.0359,12.1792,-.3019;-4.7464,10.2231,-7.3884;-5.8165,9.8264,-8.6518;-5.3507,13.7877,-7.3291;-4.4802,14.8934,-5.2885;-4.6903,13.7147,-3.0823;-6.6655,10.4984,-4.8545;-4.6154,11.4863,-2.2059;-7.8021,9.1478,-2.5621;-7.5753,8.7929,.0292;-6.7203,7.7645,-1.1089;-3.3072,4.7808,.3103;-6.88,5.5392,-2.9265;-5.7982,6.2743,-4.0935;-4.5726,3.7563,-3.4553;-6.8721,3.6892,-6.4946;-5.6147,1.5066,-4.7148;-9.3051,4.0288,-5.3419;-10.2292,.1521,-6.5003;-7.6064,3.5745,-3.7232;-6.6229,2.988,-1.7922;-4.2767,4.4852,-7.8029;-6.1809,-1.6578,-7.6793;-2.2419,.3592,-10.1827;-3.2277,-.7758,-10.8796;-8.2759,10.9947,-.5266;-9.3704,11.989,-2.0841;-6.9788,13.0277,-1.8946;-5.6511,11.3242,-.0455;

> <Formula>
C21 H28 N7 O17 P3

> <Mw>
743.405

> <SMILES>
N([H])([H])C(C1C([H])=[N+]([C@@]2([H])[C@]([H])(O[H])[C@@]([H])(O[H])[C@]([H])(C([H])([H])O[P@@](O[P@](OC([H])([H])[C@@]3([H])[C@]([H])(O[H])[C@@]([H])(OP(=O)(O[H])O[H])[C@]([H])(N4C5N=C([H])N=C(N([H])[H])C=5N=C4[H])O3)(=O)O[H])(=O)[O-])O2)C([H])=C([H])C=1[H])=O

> <CSID>
26330013

$$$$
