16219737
  -OEChem-12272301423D

 41 42  0     1  0  0  0  0  0999 V2000
   -4.1575    1.4547   -0.4671 P   0  0  2  0  0  0  0  0  0  0  0  0
   -0.5361   -0.9052   -0.9251 O   0  0  0  0  0  0  0  0  0  0  0  0
   -3.1010    0.2182   -0.6307 O   0  0  0  0  0  0  0  0  0  0  0  0
   -5.2599    0.7437    0.5075 O   0  0  0  0  0  0  0  0  0  0  0  0
   -4.8101    1.7060   -1.8092 O   0  5  0  0  0  0  0  0  0  0  0  0
   -3.5047    2.5896    0.2920 O   0  0  0  0  0  0  0  0  0  0  0  0
    3.6743    3.2933    0.8584 O   0  0  0  0  0  0  0  0  0  0  0  0
    1.8725   -0.7846   -0.6807 N   0  3  0  0  0  0  0  0  0  0  0  0
    1.4555    2.8634    1.2463 N   0  0  0  0  0  0  0  0  0  0  0  0
   -0.5871   -1.9179    1.2009 C   0  0  1  0  0  0  0  0  0  0  0  0
    0.5612   -2.5705    0.4295 C   0  0  2  0  0  0  0  0  0  0  0  0
   -1.4571   -1.3643    0.0769 C   0  0  1  0  0  0  0  0  0  0  0  0
    0.6784   -1.6669   -0.8056 C   0  0  1  0  0  0  0  0  0  0  0  0
   -1.3367   -2.8063    2.1814 C   0  0  0  0  0  0  0  0  0  0  0  0
    0.3077   -4.0199    0.0093 C   0  0  0  0  0  0  0  0  0  0  0  0
   -2.3552   -0.2138    0.4956 C   0  0  0  0  0  0  0  0  0  0  0  0
    1.7425    0.3953   -0.0589 C   0  0  0  0  0  0  0  0  0  0  0  0
    3.0385   -1.2001   -1.1942 C   0  0  0  0  0  0  0  0  0  0  0  0
    2.8380    1.2366    0.0725 C   0  0  0  0  0  0  0  0  0  0  0  0
    4.1676   -0.4000   -1.0924 C   0  0  0  0  0  0  0  0  0  0  0  0
    4.0617    0.8306   -0.4514 C   0  0  0  0  0  0  0  0  0  0  0  0
    2.7078    2.5179    0.7451 C   0  0  0  0  0  0  0  0  0  0  0  0
   -0.1632   -1.0794    1.7706 H   0  0  0  0  0  0  0  0  0  0  0  0
    1.4782   -2.5627    1.0311 H   0  0  0  0  0  0  0  0  0  0  0  0
   -2.0614   -2.1522   -0.3901 H   0  0  0  0  0  0  0  0  0  0  0  0
    0.7988   -2.2304   -1.7384 H   0  0  0  0  0  0  0  0  0  0  0  0
   -2.0680   -2.2232    2.7505 H   0  0  0  0  0  0  0  0  0  0  0  0
   -0.6444   -3.2607    2.8976 H   0  0  0  0  0  0  0  0  0  0  0  0
   -1.8811   -3.6086    1.6731 H   0  0  0  0  0  0  0  0  0  0  0  0
   -0.6145   -4.1227   -0.5718 H   0  0  0  0  0  0  0  0  0  0  0  0
    1.1347   -4.3881   -0.6079 H   0  0  0  0  0  0  0  0  0  0  0  0
    0.2369   -4.6757    0.8827 H   0  0  0  0  0  0  0  0  0  0  0  0
   -1.7562    0.6302    0.8529 H   0  0  0  0  0  0  0  0  0  0  0  0
   -3.0449   -0.5230    1.2862 H   0  0  0  0  0  0  0  0  0  0  0  0
    0.7597    0.6175    0.3218 H   0  0  0  0  0  0  0  0  0  0  0  0
    3.0574   -2.1704   -1.6753 H   0  0  0  0  0  0  0  0  0  0  0  0
    5.1160   -0.7290   -1.5036 H   0  0  0  0  0  0  0  0  0  0  0  0
    4.9465    1.4563   -0.3713 H   0  0  0  0  0  0  0  0  0  0  0  0
   -6.0883    1.2299    0.7069 H   0  0  0  0  0  0  0  0  0  0  0  0
    1.3356    3.7560    1.7149 H   0  0  0  0  0  0  0  0  0  0  0  0
    0.6197    2.2953    1.1917 H   0  0  0  0  0  0  0  0  0  0  0  0
  1  3  1  0  0  0  0
  1  4  1  0  0  0  0
  1  5  1  0  0  0  0
  1  6  2  0  0  0  0
  2 12  1  0  0  0  0
  2 13  1  0  0  0  0
  3 16  1  0  0  0  0
  4 39  1  0  0  0  0
  7 22  2  0  0  0  0
  8 13  1  0  0  0  0
  8 17  1  0  0  0  0
  8 18  2  0  0  0  0
  9 22  1  0  0  0  0
  9 40  1  0  0  0  0
  9 41  1  0  0  0  0
 10 11  1  0  0  0  0
 10 12  1  0  0  0  0
 10 14  1  0  0  0  0
 10 23  1  0  0  0  0
 11 13  1  0  0  0  0
 11 15  1  0  0  0  0
 11 24  1  0  0  0  0
 12 16  1  0  0  0  0
 12 25  1  0  0  0  0
 13 26  1  0  0  0  0
 14 27  1  0  0  0  0
 14 28  1  0  0  0  0
 14 29  1  0  0  0  0
 15 30  1  0  0  0  0
 15 31  1  0  0  0  0
 15 32  1  0  0  0  0
 16 33  1  0  0  0  0
 16 34  1  0  0  0  0
 17 19  2  0  0  0  0
 17 35  1  0  0  0  0
 18 20  1  0  0  0  0
 18 36  1  0  0  0  0
 19 21  1  0  0  0  0
 19 22  1  0  0  0  0
 20 21  2  0  0  0  0
 20 37  1  0  0  0  0
 21 38  1  0  0  0  0
M  CHG  2   5  -1   8   1
M  END
> <PUBCHEM_COMPOUND_CID>
16219737

> <PUBCHEM_CONFORMER_RMSD>
0.8

> <PUBCHEM_CONFORMER_DIVERSEORDER>
1
94
95
85
58
105
45
68
59
55
15
99
74
92
65
41
49
100
7
116
88
97
61
29
19
72
113
46
60
26
13
108
84
77
96
36
82
43
53
38
70
16
69
109
106
71
81
22
98
37
101
83
79
76
78
2
64
87
80
34
114
21
35
57
112
33
104
42
62
110
31
10
115
51
25
89
93
40
102
91
48
32
50
5
90
44
67
107
52
3
73
39
86
54
103
17
47
12
24
111
63
117
27
8
56
23
14
75
4
28
18
6
20
30
66
11
9

> <PUBCHEM_MMFF94_PARTIAL_CHARGES>
25
1 1.44
12 0.28
13 0.77
16 0.28
17 0.21
18 0.21
19 0.09
2 -0.56
20 -0.15
21 -0.15
22 0.54
3 -0.55
35 0.15
36 0.15
37 0.15
38 0.15
39 0.5
4 -0.77
40 0.37
41 0.37
5 -0.95
6 -0.95
7 -0.57
8 -0.21
9 -0.8

> <PUBCHEM_EFFECTIVE_ROTOR_COUNT>
6

> <PUBCHEM_PHARMACOPHORE_FEATURES>
9
1 2 acceptor
1 4 acceptor
1 5 acceptor
1 6 acceptor
1 7 acceptor
1 9 donor
4 1 4 5 6 anion
5 2 10 11 12 13 rings
6 8 17 18 19 20 21 rings

> <PUBCHEM_HEAVY_ATOM_COUNT>
22

> <PUBCHEM_ATOM_DEF_STEREO_COUNT>
4

> <PUBCHEM_ATOM_UDEF_STEREO_COUNT>
0

> <PUBCHEM_BOND_DEF_STEREO_COUNT>
0

> <PUBCHEM_BOND_UDEF_STEREO_COUNT>
0

> <PUBCHEM_ISOTOPIC_ATOM_COUNT>
0

> <PUBCHEM_COMPONENT_COUNT>
1

> <PUBCHEM_CACTVS_TAUTO_COUNT>
2

> <PUBCHEM_CONFORMER_ID>
00F77E5900000001

> <PUBCHEM_MMFF94_ENERGY>
42.5321

> <PUBCHEM_FEATURE_SELFOVERLAP>
45.712

> <PUBCHEM_SHAPE_FINGERPRINT>
10165383 225 18114475469568832126
10608611 8 18125728039519757982
1100329 8 16968018839814387336
11221954 11 18268709579103617056
12596602 18 15141259757598980421
12730499 353 18336838498448385843
12769317 202 18263919943428793141
12788726 201 17100884310277974475
12892183 10 12324241663507430511
13294875 104 18336252467098129442
13464514 151 18266468606870842951
14178000 15 17689429391208326111
14178342 30 17678171818485533538
14251764 3 18334306370097610865
14466204 15 18266452110360284792
14848178 96 18409163299059739765
14931854 50 18270967821257970844
15238133 3 18408038516577077540
15295992 7 18410016563132436082
18219364 16 18337692869894768395
19049666 15 18337400460380032970
21041028 32 17545032706791699470
21401589 2 18268142248463051881
21475661 188 18410569595800753092
21524375 3 18333730191444795095
221357 26 18200878366234960261
23503958 25 17977119168864447540
23558518 356 18119806069433939030
238 59 18272930518337768613
25 1 18336831883497175503
3187 122 17540811028933124537
3380486 145 17400648615103451923
3524813 1 18336827498420183461
474 4 18413387627160023249
5312625 73 18411980252877635871
5895379 119 17340120044801040425
7471813 234 17691109449444400623
7808743 9 17823713025729046412
81228 2 17680707334747951055
84936 182 18191024491486840715
8509985 295 18261663767291301274
90316 7 17398679381066546138
9981440 41 17983276408136141962

> <PUBCHEM_SHAPE_MULTIPOLES>
411.42
8.52
4.28
1.41
6.19
0.9
0.22
-8.22
-2.28
-0.4
1.65
0.34
0.23
2.39

> <PUBCHEM_SHAPE_SELFOVERLAP>
842.978

> <PUBCHEM_SHAPE_VOLUME>
241.2

> <PUBCHEM_COORDINATE_TYPE>
2
5
10

$$$$
